<?xml version="1.0" encoding="UTF-8"?>

<!-- generated on 2024-04-18 00:25:49 by Eclipse SUMO netedit Version 1.19.0
-->

<routes xmlns:xsi="http://www.w3.org/2001/XMLSchema-instance"
    xsi:noNamespaceSchemaLocation="http://sumo.dlr.de/xsd/routes_file.xsd">
    <!-- VTypes -->
    <vType id="SLOWVEHTYPE" length="4.20" color="cyan" accel="2.1" maxSpeed="11.2" decel="4.3" />
    <vType
        id="MEDVEHTYPE" length="4.20" color="green" accel="2.3" maxSpeed="14.0" decel="4.4" />
    <vType
        id="FASTVEHTYPE" length="4.20" color="red" accel="2.5" maxSpeed="22.2" decel="4.5" />
    <vTypeDistribution
        id="td_0" vTypes="SLOWVEHTYPE MEDVEHTYPE FASTVEHTYPE"
        probabilities="0.25 0.60 0.15" />
    <!-- Vehicles, persons and containers (sorted by depart) -->

    <!-- 10 minutes Warming -->
    <flow id="ew0" type="td_0" begin="0.00" departLane="best"
        departSpeed="random" fromJunction="JE"
        toJunction="JW" end="600.00" period="exp(0.154)" />
    <flow id="en0" type="td_0" begin="0.00"
        departLane="best" departSpeed="random" fromJunction="JE"
        toJunction="JN" end="600.00" period="exp(0.049)" />
    <flow id="es0" type="td_0" begin="0.00"
        departLane="best" departSpeed="random" fromJunction="JE"
        toJunction="JS" end="600.00" period="exp(0.0176)" />

    <flow id="we0" type="td_0" begin="0.00"
        departLane="best" departSpeed="random" fromJunction="JW"
        toJunction="JE" end="600.00" period="exp(0.154)" />
    <flow id="wn0" type="td_0" begin="0.00"
        departLane="best" departSpeed="random" fromJunction="JW"
        toJunction="JN" end="600.00" period="exp(0.0176)" />
    <flow id="ws0" type="td_0" begin="0.00"
        departLane="best" departSpeed="random" fromJunction="JW"
        toJunction="JS" end="600.00" period="exp(0.049)" />

    <flow id="ns0" type="td_0" begin="0.00"
        departLane="best" departSpeed="random" fromJunction="JN"
        toJunction="JS" end="600.00" period="exp(0.154)" />
    <flow id="ne0" type="td_0" begin="0.00"
        departLane="best" departSpeed="random" fromJunction="JN"
        toJunction="JE" end="600.00" period="exp(0.0176)" />
    <flow id="nw0" type="td_0" begin="0.00"
        departLane="best" departSpeed="random" fromJunction="JN"
        toJunction="JW" end="600.00" period="exp(0.049)" />

    <flow id="sn0" type="td_0" begin="0.00"
        departLane="best" departSpeed="random" fromJunction="JS"
        toJunction="JN" end="600.00" period="exp(0.154)" />
    <flow id="se0" type="td_0" begin="0.00"
        departLane="best" departSpeed="random" fromJunction="JS"
        toJunction="JE" end="600.00" period="exp(0.049)" />
    <flow id="sw0" type="td_0" begin="0.00"
        departLane="best" departSpeed="random" fromJunction="JS"
        toJunction="JW" end="600.00" period="exp(0.0176)" />

    <!-- 0-12hs -->
    <flow id="ew1" type="td_0" begin="600.00"
        departLane="best" departSpeed="random" fromJunction="JE"
        toJunction="JW" end="22200.00" period="exp(0.154)" />
    <flow id="en1" type="td_0" begin="600.00"
        departLane="best" departSpeed="random" fromJunction="JE"
        toJunction="JN" end="22200.00" period="exp(0.049)" />
    <flow id="es1" type="td_0" begin="600.00"
        departLane="best" departSpeed="random" fromJunction="JE"
        toJunction="JS" end="22200.00" period="exp(0.0176)" />

    <flow id="we1" type="td_0" begin="600.00"
        departLane="best" departSpeed="random" fromJunction="JW"
        toJunction="JE" end="22200.00" period="exp(0.154)" />
    <flow id="wn1" type="td_0" begin="600.00"
        departLane="best" departSpeed="random" fromJunction="JW"
        toJunction="JN" end="22200.00" period="exp(0.0176)" />
    <flow id="ws1" type="td_0" begin="600.00"
        departLane="best" departSpeed="random" fromJunction="JW"
        toJunction="JS" end="22200.00" period="exp(0.049)" />

    <flow id="ns1" type="td_0" begin="600.00"
        departLane="best" departSpeed="random" fromJunction="JN"
        toJunction="JS" end="22200.00" period="exp(0.154)" />
    <flow id="ne1" type="td_0" begin="600.00"
        departLane="best" departSpeed="random" fromJunction="JN"
        toJunction="JE" end="22200.00" period="exp(0.0176)" />
    <flow id="nw1" type="td_0" begin="600.00"
        departLane="best" departSpeed="random" fromJunction="JN"
        toJunction="JW" end="22200.00" period="exp(0.049)" />

    <flow id="sn1" type="td_0" begin="600.00"
        departLane="best" departSpeed="random" fromJunction="JS"
        toJunction="JN" end="22200.00" period="exp(0.154)" />
    <flow id="se1" type="td_0" begin="600.00"
        departLane="best" departSpeed="random" fromJunction="JS"
        toJunction="JE" end="22200.00" period="exp(0.049)" />
    <flow id="sw1" type="td_0" begin="600.00"
        departLane="best" departSpeed="random" fromJunction="JS"
        toJunction="JW" end="22200.00" period="exp(0.0176)" /> 
</routes>